! Article "Experimental and Modeling Study of Formaldehyde Flames and Formaldehyde in Flames"  - Combustion and Flame 159 (2012) 1814-1820
! Dias et al.                                                                                                                                                                             
                                                                                                                                                                                 

ELEMENTS
 O H C AR 
END

SPECIES
H2 H O O2 OH
H2O HO2 CH CH2 CH3
CH4 CO CO2 HCO CH2O
C2H C2H2 C2H3 C2H4 C2H5
C2H6 HCCO CH2CO HCCOH CH2(S)
C2H5OCO H2O2 AR C2H5OCHO C3H2
C3H3 pC3H4 aC3H4 C4H2 H2C4O
n-C4H3 i-C4H3 C4H4 n-C4H5 i-C4H5
C4H6 C4H8 C4H7 C4H C6H2
C6H3 C6H4 C6H C6H6 C6H5
C6H6O C6H5O C5H6 C5H5 C5H5C2H3
C5H5C2H2 C3H8 nC3H7 iC3H7 C3H6
C3H5 CH3CHO CH3CO C7H7 C7H8
C8H6 C8H8 C8H5 C8H7 C9H7
C9H8 C10H8 C10H7 C10H7O C10H7OH
DMM DMM1 DMM2 CH3OCH2O CH3OCH2
CH3OCHO CH3OCO CH3O CH3OH CH2OH
FULVENE C12H8A C12H8B C12H9 A3
DEM C2H5OCH2OH C2H5OCH2O C2H4OCH2OH C2H4OH
C2H5OH CH2CHO CH3CH2O CH3CHOH CH2CH2OCH2OCH2CH3
CH3CH2OCHOCH2CH3 CH3CHOCH2OCH2CH3 C2H5OCH2 FULVENYL c-C6H4
PHCH2 C10H10
 END

REACTIONS CAL/MOLE
H+O2 = OH+O 1.860000E+014 0.000000E+000 1.679000E+004 !                                                                                                                                                                                                                                                                                                                                                                                                  WestbrOOk (1983)
H2+O = H+OH 1.820000E+010 1.000000E+000 8.900000E+003 !                                                                                                                                                                                                                                                                                                                                                                                                  WestbrOOk (1983)
OH+H2 = H2O+H 1.170000E+009 1.300000E+000 3.626000E+003 !                                                                                                                                                                                                                                                                                                                                                                                                  Miller (1992)
OH+OH = H2O+O 3.160000E+012 0.000000E+000 1.100000E+003 !                                                                                                                                                                                                                                                                                                                                                                                                  WestbrOOk (1983)
H+H+M = H2+M 3.020000E+015 0.000000E+000 0.000000E+000
     H2O /1.800000E+001/  H2 /2.850000E+000/  O2 /1.140000E+000/
H+OH+M = H2O+M 1.410000E+023 -2.000000E+000 0.000000E+000
     H2O /1.800000E+001/  H2 /2.850000E+000/  O2 /1.140000E+000/
H+O2+M = HO2+M 1.660000E+015 0.000000E+000 -1.000000E+003
     H2O /1.800000E+001/  H2 /2.850000E+000/  O2 /1.140000E+000/
H+HO2 = OH+OH 2.500000E+014 0.000000E+000 1.900000E+003 !                                                                                                                                                                                                                                                                                                                                                                                                  WestbrOOk (1983)
H+HO2 = H2+O2 4.480000E+013 0.000000E+000 1.068000E+003 !GRI 3.0 (1999)
HO2+O = O2+OH 5.010000E+013 0.000000E+000 1.000000E+003 !                                                                                                                                                                                                                                                                                                                                                                                                  WestbrOOk (1983)
OH+HO2 = H2O+O2 2.890000E+013 0.000000E+000 -4.970000E+002 !Baulch (1992)                                                                                                                                                                                                                                                                                                                                                                                                WestbrOOk (1983)
HO2+HO2 = O2+H2O2 1.300000E+011 0.000000E+000 -1.630000E+003 !GRI 3.0
     DUPLICATE
HO2+HO2 = O2+H2O2 4.200000E+014 0.000000E+000 1.200000E+004 !GRI 3.0
     DUPLICATE
OH+OH(+M) = H2O2(+M) 7.400000E+013 -3.700000E-001 0.000000E+000 !GRI 3.0
     LOW /2.300000E+018 -9.000000E-001 -1.700000E+003/
  TROE /7.346000E-001 9.400000E+001 1.756000E+003 5.182000E+003/
  H2 /2.000000E+000/  H2O /6.000000E+000/  CH4 /2.000000E+000/  CO /1.500000E+000/  CO2 /2.000000E+000/  C2H6 /3.000000E+000/  AR /7.000000E-001/
H2O2+H = HO2+H2 1.210000E+007 2.000000E+000 5.200000E+003 !GRI 3.0
OH+H2O2 = HO2+H2O 2.000000E+012 0.000000E+000 4.270000E+002 !GRI 3.0
     DUPLICATE
OH+H2O2 = HO2+H2O 1.700000E+018 0.000000E+000 2.941000E+004 !GRI 3.0
     DUPLICATE
H+O+M = OH+M 1.000000E+016 0.000000E+000 0.000000E+000
     H2O /1.800000E+001/  H2 /2.850000E+000/  O2 /1.140000E+000/
CO+OH = CO2+H 6.320000E+006 1.500000E+000 -4.970000E+002 !                                                                                                                                                                                                                                                                                                                                                                                                  BaulCH (1992)
H+CH2O = HCO+H2 1.260000E+008 1.620000E+000 2.170000E+003 !Leplat (2011)
O+CH2O = HCO+OH 1.070000E+013 5.700000E-001 2.762000E+003 !Baulch (1992)
OH+CH2O = HCO+H2O 1.800000E+013 0.000000E+000 4.360000E+002 !Vando
CH2O+M = HCO+H+M 3.300000E+039 -6.300000E+000 9.990400E+004 !                                              
     Ar /7.000000E-001/  H2 /2.000000E+000/  CO /1.500000E+000/  CH2O /3.000000E+000/
H+HCO = CO+H2 9.030000E+013 0.000000E+000 0.000000E+000 !                                                                                                                                                                                                                                                                                                                                                                                                  BaulCH (1992)
O+HCO = CO2+H 3.010000E+013 0.000000E+000 0.000000E+000 !                                                                                                                                                                                                                                                                                                                                                                                                  BaulCH (1992)
O+HCO = CO+OH 3.010000E+013 0.000000E+000 0.000000E+000 !                                                                                                                                                                                                                                                                                                                                                                                                  BaulCH (1992)
OH+HCO = CO+H2O 1.020000E+014 0.000000E+000 0.000000E+000 !                                                                                                                                                                                                                                                                                                                                                                                                  BaulCH (1992)
O2+HCO = CO+HO2 1.350000E+013 0.000000E+000 4.000000E+002 !GRI 3.0 (1999)
HCO+M = CO+H+M 2.180000E+014 0.000000E+000 1.576500E+004 !                                                                                                                                                                                                                                                                                                                                                                                                  BaulCH (1992) +40% Ou -13 % Miller (1992)
H+CH2 = CH+H2 6.020000E+012 0.000000E+000 -1.789000E+003 !                                                                                                                                                                                                                                                                                                                                                                                                  BaulCH (1992)
O+CH2 = CO+H+H 1.200000E+014 0.000000E+000 0.000000E+000 !                                                                                                                                                                                                                                                                                                                                                                                                  BaulCH (1992)
O2+CH2 = CO2+H+H 2.470000E+013 0.000000E+000 1.491000E+003 !                                                                                                                                                                                                                                                                                                                                                                                                  BaulCH (1992)
O+CH = CO+H 3.970000E+013 0.000000E+000 0.000000E+000 !                                                                                                                                                                                                                                                                                                                                                                                                  BaulCH (1992)
O2+CH = CO+OH 3.310000E+013 0.000000E+000 0.000000E+000 !                                                                                                                                                                                                                                                                                                                                                                                                  BaulCH (1992)
H+HCCO = CH2(S)+CO 1.000000E+014 0.000000E+000 0.000000E+000 !                                                                                                                                                                                                                                                                                                                                                                                                  Miller (1992)
O+HCCO = CO+CO+H 9.640000E+013 0.000000E+000 0.000000E+000 !                                                                                                                                                                                                                                                                                                                                                                                                  BaulCH (1992)
HCCO+OH => HCO+CO+H 1.000000E+014 0.000000E+000 0.000000E+000 !                                                                                                                                                                                                                                                                                                                                                                                                  Peeters (1996)
HCCO+O2 => CO+CO+OH 1.630000E+012 0.000000E+000 8.550000E+002 !                                                                                                                                                                                                                                                                                                                                                                                                  Peeters (1996)
CH+CO2 = HCO+CO 3.400000E+012 0.000000E+000 6.900000E+002 !                                                                                                                                                                                                                                                                                                                                                                                                  Miller (1992)
CO+O+M = CO2+M 6.170000E+014 0.000000E+000 3.000000E+003 !                                                                                                                                                                                                                                                                                                                                                                                                  Miller (1992)
CO+O2 = CO2+O 2.530000E+012 0.000000E+000 4.768800E+004 !                                                                                                                                                                                                                                                                                                                                                                                                  Miller (1992)
HO2+CO = CO2+OH 5.800000E+013 0.000000E+000 2.293400E+004 !                                                                                                                                                                                                                                                                                                                                                                                                  Miller (1992)
CH2+CH2 = C2H2+H2 1.200000E+014 0.000000E+000 7.950000E+002 !                                                                                                                                                                                                                                                                                                                                                                                                  BaulCH (1992)
CH3+CH2 = C2H4+H 4.220000E+013 0.000000E+000 0.000000E+000 !                                                                                                                                                                                                                                                                                                                                                                                                  BaulCH (1992)
CH2(S)+M = CH2+M 1.000000E+013 0.000000E+000 0.000000E+000
     H /0.000000E+000/  H2O /0.000000E+000/  C2H2 /0.000000E+000/
CH2(S)+CH4 = 2CH3 4.000000E+013 0.000000E+000 0.000000E+000 !                                                                                                                                                                                                                                                                                                                                                                                                  Miller (1992)
CH2(S)+C2H6 = CH3+C2H5 1.200000E+014 0.000000E+000 0.000000E+000 !                                                                                                                                                                                                                                                                                                                                                                                                  Miller (1992)
CH2(S)+O2 = CO+OH+H 7.000000E+013 0.000000E+000 0.000000E+000 !                                                                                                                                                                                                                                                                                                                                                                                                  Miller (1992)
CH2(S)+H2O = CH3+OH 7.500000E+006 2.000000E+000 5.000000E+003 !                                                                                                                                                                                                                                                                  Richter (1999)
CH2(S)+H2O = CH2+H2O 3.000000E+013 0.000000E+000 0.000000E+000 !                                                                                                                                                                                                                                                                                                                                                                                                  Miller (1992)
CH2(S)+C2H2 = CH2+C2H2 4.000000E+013 0.000000E+000 0.000000E+000 !                                                                                                                                                                                                                                                                                                                                                                                                  Miller (1992)
CH2(S)+H = CH2+H 2.000000E+014 0.000000E+000 0.000000E+000 !                                                                                                                                                                                                                                                                                                                                                                                                  Miller (1992)
CH2(S)+O = CO+2H 3.000000E+013 0.000000E+000 0.000000E+000 !                                                                                                                                                                                                                                                                                                                                                                                                  Miller (1992)
CH2(S)+OH = CH2O+H 3.000000E+013 0.000000E+000 0.000000E+000 !                                                                                                                                                                                                                                                                                                                                                                                                  Miller (1992)
CH2(S)+H = CH+H2 3.000000E+013 0.000000E+000 0.000000E+000 !                                                                                                                                                                                                                                                                                                                                                                                                  Miller (1992)
CH2(S)+CO2 = CH2O+CO 1.400000E+013 0.000000E+000 0.000000E+000 !                                                                                                                                                                                                                                                                                                                                                                                                  Gri 1.2 (1995)
CH2(S)+CH3 = C2H4+H 2.000000E+013 0.000000E+000 0.000000E+000 !                                                                                                                                                                                                                                                                                                                                                                                                  Miller (1992)
CH2(S)+CH2CO = C2H4+CO 1.600000E+014 0.000000E+000 0.000000E+000 !                                                                                                                                                                                                                                                                                                                                                                                                  Miller (1992)
H+CH2CO = CH3+CO 1.810000E+013 0.000000E+000 3.380000E+003 !                                                                                                                                                                        Baulch (1992)
O+CH2CO = HCO+HCO 2.290000E+012 0.000000E+000 1.352000E+003 !                                                                                                                                                                                                                                                                                                                                                                                                  BaulCH (1992)
OH+CH2CO = CH2O+HCO 1.020000E+013 0.000000E+000 0.000000E+000 !                                                                                                                                                                                                                                                                                                                                                                                                  BaulCH (1992)
CH2CO+M = CH2+CO+M 1.000000E+016 0.000000E+000 5.932400E+004 !                                                                                                                                                                                                                                                                                                                                                                                                  Warnatz (1984)
CH3CHO+O2 = CH3CO+HO2 3.000000E+013 0.000000E+000 3.910000E+004 !                                                                                                                                                                                                                                                                                                                                                                                                  Davis (1999)
CH3CHO+OH = CH3CO+H2O 2.350000E+010 7.300000E-001 -1.110000E+003 !                                                                                                                                                                                                                                                                                                                                                                                                  Davis (1999)

CH3CHO+O = CH3CO+OH 5.800000E+012 0.000000E+000 1.800000E+003 !                                                                                                                                                                                                                                                                                                                                                                                                  Davis (1999)
CH3CHO+CH3 = CH3CO+CH4 2.000000E-006 5.600000E+000 2.460000E+003 !                                                                                                                                                                                                                                                                                                                                                                                                  Davis (1999)
CH3CO+H = CH3+HCO 9.600000E+013 0.000000E+000 0.000000E+000 !                                                                                                                                                                                                                                                                                                                                                                                                  Davis (1999)				
CH3CO+O = CH2CO+OH 3.900000E+013 0.000000E+000 0.000000E+000 !                                                                                                                                                                                                                                                                                                                                                                                                  Davis (1999)				
CH3CO+O = CH3+CO2 1.500000E+014 0.000000E+000 0.000000E+000 !                                                                                                                                                                                                                                                                                                                                                                                                  Davis (1999)				
CH3CO+OH = CH2CO+H2O 1.200000E+013 0.000000E+000 0.000000E+000 !                                                                                                                                                                                                                                                                                                                                                                                                  Davis (1999)				
CH3CO+OH = CH3+CO+OH 3.000000E+013 0.000000E+000 0.000000E+000 !                                                                                                                                                                                                                                                                                                                                                                                                  Davis (1999)				
CH3CO+HO2 = CH3+CO2+OH 3.000000E+013 0.000000E+000 0.000000E+000 !                                                                                                                                                                                                                                                                                                                                                                                                  Davis (1999)				
CH3+HCO = CH3CHO 1.800000E+013 0.000000E+000 0.000000E+000 !                                                                                                                                                                                                                                                             Davis (1999)
H+CH4 = H2+CH3 1.320000E+004 3.000000E+000 8.041000E+003 !                                                                                                                                                                                                                                                                                                                                                                                                  BaulCH (1992)				
O+CH4 = OH+CH3 9.030000E+008 1.560000E+000 8.489000E+003 !                                                                                                                                                                                                                                                                                                                                                                                                  BaulCH (1992)				
OH+CH4 = H2O+CH3 1.560000E+007 1.830000E+000 2.783000E+003 !                                                                                                                                                                                                                                                                                                                                                                                                  BaulCH (1992)	
CH3+H(+M) = CH4(+M) 1.270000E+016 -6.300000E-001 3.830000E+002